[root]
type=Root
children=system
eventq_index=0
full_system=true
sim_quantum=0
time_sync_enable=false
time_sync_period=100000000000
time_sync_spin_threshold=100000000

[system]
type=LinuxArmSystem
children=bootmem cf0 clk_domain cpu cpu_clk_domain cpu_voltage_domain dvfs_handler intrctrl iobus mem_ctrls pci_ide realview ruby sys_port_proxy terminal vncserver voltage_domain
atags_addr=134217728
auto_reset_addr_64=false
boot_loader=/home/h/fs/binaries/boot_emm.arm64 /home/h/fs/binaries/boot_emm.arm
boot_osflags=earlyprintk=pl011,0x1c090000 console=ttyAMA0 lpj=19988480 norandmaps rw loglevel=8 mem=512MB root=/dev/sda1
cache_line_size=64
clk_domain=system.clk_domain
default_p_state=UNDEFINED
dtb_filename=/home/h/fs/binaries/armv8_gem5_v1_1cpu.20170616.dtb
early_kernel_symbols=false
enable_context_switch_stats_dump=false
eventq_index=0
exit_on_work_items=false
flags_addr=469827632
gic_cpu_addr=738205696
have_large_asid_64=false
have_lpae=true
have_security=false
have_virtualization=false
highest_el_is_64=false
init_param=0
kernel=//home/h/fs/binaries/vmlinux.vexpress_gem5_v1_64.20170616
kernel_addr_check=true
kernel_extras=
load_addr_mask=0
load_offset=2147483648
m5ops_base=268500992
machine_type=DTOnly
mem_mode=timing
mem_ranges=2147483648:2684354559:0:0:0:0
memories=system.bootmem system.mem_ctrls
mmap_using_noreserve=false
multi_proc=true
multi_thread=false
num_work_ids=16
p_state_clk_gate_bins=20
p_state_clk_gate_max=1000000000000
p_state_clk_gate_min=1000
panic_on_oops=false
panic_on_panic=false
phys_addr_range_64=40
power_model=
readfile=
reset_addr_64=0
semihosting=Null
symbolfile=
thermal_components=
thermal_model=Null
work_begin_ckpt_count=0
work_begin_cpu_id_exit=-1
work_begin_exit_count=0
work_cpus_ckpt_count=0
work_end_ckpt_count=0
work_end_exit_count=0
work_item_id=-1
system_port=system.sys_port_proxy.slave[0]

[system.bootmem]
type=SimpleMemory
bandwidth=73.000000
clk_domain=system.clk_domain
conf_table_reported=false
default_p_state=UNDEFINED
eventq_index=0
in_addr_map=true
kvm_map=true
latency=30000
latency_var=0
null=false
p_state_clk_gate_bins=20
p_state_clk_gate_max=1000000000000
p_state_clk_gate_min=1000
power_model=
range=0:67108863:0:0:0:0
port=system.ruby.network.ext_links3.ext_node.memory

[system.cf0]
type=IdeDisk
children=image
delay=1000000
driveID=master
eventq_index=0
image=system.cf0.image

[system.cf0.image]
type=CowDiskImage
children=child
child=system.cf0.image.child
eventq_index=0
image_file=
read_only=false
table_size=65536

[system.cf0.image.child]
type=RawDiskImage
eventq_index=0
image_file=/home/h/fs/disks/expanded-linaro-minimal-aarch64.img
read_only=true

[system.clk_domain]
type=SrcClockDomain
clock=1000
domain_id=-1
eventq_index=0
init_perf_level=0
voltage_domain=system.voltage_domain

[system.cpu]
type=DerivO3CPU
children=branchPred dstage2_mmu dtb fuPool interrupts isa istage2_mmu itb tracer
LFSTSize=1024
LQEntries=16
LSQCheckLoads=true
LSQDepCheckShift=0
SQEntries=16
SSITSize=1024
activity=0
backComSize=5
branchPred=system.cpu.branchPred
cacheStorePorts=200
checker=Null
clk_domain=system.cpu_clk_domain
commitToDecodeDelay=1
commitToFetchDelay=1
commitToIEWDelay=1
commitToRenameDelay=1
commitWidth=8
cpu_id=0
decodeToFetchDelay=1
decodeToRenameDelay=2
decodeWidth=3
default_p_state=UNDEFINED
dispatchWidth=6
do_checkpoint_insts=true
do_quiesce=true
do_statistics_insts=true
dstage2_mmu=system.cpu.dstage2_mmu
dtb=system.cpu.dtb
eventq_index=0
fetchBufferSize=16
fetchQueueSize=32
fetchToDecodeDelay=3
fetchTrapLatency=1
fetchWidth=3
forwardComSize=5
fuPool=system.cpu.fuPool
function_trace=false
function_trace_start=0
iewToCommitDelay=1
iewToDecodeDelay=1
iewToFetchDelay=1
iewToRenameDelay=1
interrupts=system.cpu.interrupts
isa=system.cpu.isa
issueToExecuteDelay=1
issueWidth=8
istage2_mmu=system.cpu.istage2_mmu
itb=system.cpu.itb
max_insts_all_threads=0
max_insts_any_thread=0
max_loads_all_threads=0
max_loads_any_thread=0
needsTSO=false
numIQEntries=32
numPhysCCRegs=640
numPhysFloatRegs=192
numPhysIntRegs=128
numPhysVecRegs=48
numROBEntries=40
numRobs=1
numThreads=1
p_state_clk_gate_bins=20
p_state_clk_gate_max=1000000000000
p_state_clk_gate_min=1000
power_gating_on_idle=false
power_model=
profile=0
progress_interval=0
pwr_gating_latency=300
renameToDecodeDelay=1
renameToFetchDelay=1
renameToIEWDelay=1
renameToROBDelay=1
renameWidth=3
simpoint_start_insts=
smtCommitPolicy=RoundRobin
smtFetchPolicy=SingleThread
smtIQPolicy=Partitioned
smtIQThreshold=100
smtLSQPolicy=Partitioned
smtLSQThreshold=100
smtNumFetchingThreads=1
smtROBPolicy=Partitioned
smtROBThreshold=100
socket_id=0
squashWidth=8
store_set_clear_period=250000
switched_out=false
syscallRetryLatency=10000
system=system
tracer=system.cpu.tracer
trapLatency=13
wait_for_remote_gdb=false
wbWidth=8
workload=
dcache_port=system.ruby.l1_cntrl0.sequencer.slave[1]
icache_port=system.ruby.l1_cntrl0.sequencer.slave[0]

[system.cpu.branchPred]
type=BiModeBP
BTBEntries=2048
BTBTagSize=18
RASSize=16
choiceCtrBits=2
choicePredictorSize=8192
eventq_index=0
globalCtrBits=2
globalPredictorSize=8192
indirectHashGHR=true
indirectHashTargets=true
indirectPathLength=3
indirectSets=256
indirectTagSize=16
indirectWays=2
instShiftAmt=2
numThreads=1
useIndirect=true

[system.cpu.dstage2_mmu]
type=ArmStage2MMU
children=stage2_tlb
eventq_index=0
stage2_tlb=system.cpu.dstage2_mmu.stage2_tlb
sys=system
tlb=system.cpu.dtb

[system.cpu.dstage2_mmu.stage2_tlb]
type=ArmTLB
children=walker
eventq_index=0
is_stage2=true
size=32
sys=system
walker=system.cpu.dstage2_mmu.stage2_tlb.walker

[system.cpu.dstage2_mmu.stage2_tlb.walker]
type=ArmTableWalker
clk_domain=system.cpu_clk_domain
default_p_state=UNDEFINED
eventq_index=0
is_stage2=true
num_squash_per_cycle=2
p_state_clk_gate_bins=20
p_state_clk_gate_max=1000000000000
p_state_clk_gate_min=1000
power_model=
sys=system

[system.cpu.dtb]
type=ArmTLB
children=walker
eventq_index=0
is_stage2=false
size=64
sys=system
walker=system.cpu.dtb.walker

[system.cpu.dtb.walker]
type=ArmTableWalker
clk_domain=system.cpu_clk_domain
default_p_state=UNDEFINED
eventq_index=0
is_stage2=false
num_squash_per_cycle=2
p_state_clk_gate_bins=20
p_state_clk_gate_max=1000000000000
p_state_clk_gate_min=1000
power_model=
sys=system
port=system.ruby.l1_cntrl0.sequencer.slave[3]

[system.cpu.fuPool]
type=FUPool
children=FUList0 FUList1 FUList2 FUList3 FUList4
FUList=system.cpu.fuPool.FUList0 system.cpu.fuPool.FUList1 system.cpu.fuPool.FUList2 system.cpu.fuPool.FUList3 system.cpu.fuPool.FUList4
eventq_index=0

[system.cpu.fuPool.FUList0]
type=FUDesc
children=opList
count=2
eventq_index=0
opList=system.cpu.fuPool.FUList0.opList

[system.cpu.fuPool.FUList0.opList]
type=OpDesc
eventq_index=0
opClass=IntAlu
opLat=1
pipelined=true

[system.cpu.fuPool.FUList1]
type=FUDesc
children=opList0 opList1 opList2
count=1
eventq_index=0
opList=system.cpu.fuPool.FUList1.opList0 system.cpu.fuPool.FUList1.opList1 system.cpu.fuPool.FUList1.opList2

[system.cpu.fuPool.FUList1.opList0]
type=OpDesc
eventq_index=0
opClass=IntMult
opLat=3
pipelined=true

[system.cpu.fuPool.FUList1.opList1]
type=OpDesc
eventq_index=0
opClass=IntDiv
opLat=12
pipelined=false

[system.cpu.fuPool.FUList1.opList2]
type=OpDesc
eventq_index=0
opClass=IprAccess
opLat=3
pipelined=true

[system.cpu.fuPool.FUList2]
type=FUDesc
children=opList0 opList1
count=1
eventq_index=0
opList=system.cpu.fuPool.FUList2.opList0 system.cpu.fuPool.FUList2.opList1

[system.cpu.fuPool.FUList2.opList0]
type=OpDesc
eventq_index=0
opClass=MemRead
opLat=2
pipelined=true

[system.cpu.fuPool.FUList2.opList1]
type=OpDesc
eventq_index=0
opClass=FloatMemRead
opLat=2
pipelined=true

[system.cpu.fuPool.FUList3]
type=FUDesc
children=opList0 opList1
count=1
eventq_index=0
opList=system.cpu.fuPool.FUList3.opList0 system.cpu.fuPool.FUList3.opList1

[system.cpu.fuPool.FUList3.opList0]
type=OpDesc
eventq_index=0
opClass=MemWrite
opLat=2
pipelined=true

[system.cpu.fuPool.FUList3.opList1]
type=OpDesc
eventq_index=0
opClass=FloatMemWrite
opLat=2
pipelined=true

[system.cpu.fuPool.FUList4]
type=FUDesc
children=opList00 opList01 opList02 opList03 opList04 opList05 opList06 opList07 opList08 opList09 opList10 opList11 opList12 opList13 opList14 opList15 opList16 opList17 opList18 opList19 opList20 opList21 opList22 opList23 opList24 opList25 opList26 opList27
count=2
eventq_index=0
opList=system.cpu.fuPool.FUList4.opList00 system.cpu.fuPool.FUList4.opList01 system.cpu.fuPool.FUList4.opList02 system.cpu.fuPool.FUList4.opList03 system.cpu.fuPool.FUList4.opList04 system.cpu.fuPool.FUList4.opList05 system.cpu.fuPool.FUList4.opList06 system.cpu.fuPool.FUList4.opList07 system.cpu.fuPool.FUList4.opList08 system.cpu.fuPool.FUList4.opList09 system.cpu.fuPool.FUList4.opList10 system.cpu.fuPool.FUList4.opList11 system.cpu.fuPool.FUList4.opList12 system.cpu.fuPool.FUList4.opList13 system.cpu.fuPool.FUList4.opList14 system.cpu.fuPool.FUList4.opList15 system.cpu.fuPool.FUList4.opList16 system.cpu.fuPool.FUList4.opList17 system.cpu.fuPool.FUList4.opList18 system.cpu.fuPool.FUList4.opList19 system.cpu.fuPool.FUList4.opList20 system.cpu.fuPool.FUList4.opList21 system.cpu.fuPool.FUList4.opList22 system.cpu.fuPool.FUList4.opList23 system.cpu.fuPool.FUList4.opList24 system.cpu.fuPool.FUList4.opList25 system.cpu.fuPool.FUList4.opList26 system.cpu.fuPool.FUList4.opList27

[system.cpu.fuPool.FUList4.opList00]
type=OpDesc
eventq_index=0
opClass=SimdAdd
opLat=4
pipelined=true

[system.cpu.fuPool.FUList4.opList01]
type=OpDesc
eventq_index=0
opClass=SimdAddAcc
opLat=4
pipelined=true

[system.cpu.fuPool.FUList4.opList02]
type=OpDesc
eventq_index=0
opClass=SimdAlu
opLat=4
pipelined=true

[system.cpu.fuPool.FUList4.opList03]
type=OpDesc
eventq_index=0
opClass=SimdCmp
opLat=4
pipelined=true

[system.cpu.fuPool.FUList4.opList04]
type=OpDesc
eventq_index=0
opClass=SimdCvt
opLat=3
pipelined=true

[system.cpu.fuPool.FUList4.opList05]
type=OpDesc
eventq_index=0
opClass=SimdMisc
opLat=3
pipelined=true

[system.cpu.fuPool.FUList4.opList06]
type=OpDesc
eventq_index=0
opClass=SimdMult
opLat=5
pipelined=true

[system.cpu.fuPool.FUList4.opList07]
type=OpDesc
eventq_index=0
opClass=SimdMultAcc
opLat=5
pipelined=true

[system.cpu.fuPool.FUList4.opList08]
type=OpDesc
eventq_index=0
opClass=SimdShift
opLat=3
pipelined=true

[system.cpu.fuPool.FUList4.opList09]
type=OpDesc
eventq_index=0
opClass=SimdShiftAcc
opLat=3
pipelined=true

[system.cpu.fuPool.FUList4.opList10]
type=OpDesc
eventq_index=0
opClass=SimdSqrt
opLat=9
pipelined=true

[system.cpu.fuPool.FUList4.opList11]
type=OpDesc
eventq_index=0
opClass=SimdFloatAdd
opLat=5
pipelined=true

[system.cpu.fuPool.FUList4.opList12]
type=OpDesc
eventq_index=0
opClass=SimdFloatAlu
opLat=5
pipelined=true

[system.cpu.fuPool.FUList4.opList13]
type=OpDesc
eventq_index=0
opClass=SimdFloatCmp
opLat=3
pipelined=true

[system.cpu.fuPool.FUList4.opList14]
type=OpDesc
eventq_index=0
opClass=SimdFloatCvt
opLat=3
pipelined=true

[system.cpu.fuPool.FUList4.opList15]
type=OpDesc
eventq_index=0
opClass=SimdFloatDiv
opLat=3
pipelined=true

[system.cpu.fuPool.FUList4.opList16]
type=OpDesc
eventq_index=0
opClass=SimdFloatMisc
opLat=3
pipelined=true

[system.cpu.fuPool.FUList4.opList17]
type=OpDesc
eventq_index=0
opClass=SimdFloatMult
opLat=3
pipelined=true

[system.cpu.fuPool.FUList4.opList18]
type=OpDesc
eventq_index=0
opClass=SimdFloatMultAcc
opLat=5
pipelined=true

[system.cpu.fuPool.FUList4.opList19]
type=OpDesc
eventq_index=0
opClass=SimdFloatSqrt
opLat=9
pipelined=true

[system.cpu.fuPool.FUList4.opList20]
type=OpDesc
eventq_index=0
opClass=FloatAdd
opLat=5
pipelined=true

[system.cpu.fuPool.FUList4.opList21]
type=OpDesc
eventq_index=0
opClass=FloatCmp
opLat=5
pipelined=true

[system.cpu.fuPool.FUList4.opList22]
type=OpDesc
eventq_index=0
opClass=FloatCvt
opLat=5
pipelined=true

[system.cpu.fuPool.FUList4.opList23]
type=OpDesc
eventq_index=0
opClass=FloatDiv
opLat=9
pipelined=false

[system.cpu.fuPool.FUList4.opList24]
type=OpDesc
eventq_index=0
opClass=FloatSqrt
opLat=33
pipelined=false

[system.cpu.fuPool.FUList4.opList25]
type=OpDesc
eventq_index=0
opClass=FloatMult
opLat=4
pipelined=true

[system.cpu.fuPool.FUList4.opList26]
type=OpDesc
eventq_index=0
opClass=FloatMultAcc
opLat=5
pipelined=true

[system.cpu.fuPool.FUList4.opList27]
type=OpDesc
eventq_index=0
opClass=FloatMisc
opLat=3
pipelined=true

[system.cpu.interrupts]
type=ArmInterrupts
eventq_index=0

[system.cpu.isa]
type=ArmISA
decoderFlavour=Generic
eventq_index=0
fpsid=1090793632
id_aa64afr0_el1=0
id_aa64afr1_el1=0
id_aa64dfr0_el1=1052678
id_aa64dfr1_el1=0
id_aa64isar0_el1=0
id_aa64isar1_el1=0
id_aa64mmfr0_el1=15728642
id_aa64mmfr1_el1=0
id_isar0=34607377
id_isar1=34677009
id_isar2=555950401
id_isar3=17899825
id_isar4=268501314
id_isar5=0
id_mmfr0=270536963
id_mmfr1=0
id_mmfr2=19070976
id_mmfr3=34611729
midr=1091551472
pmu=Null
system=system
vecRegRenameMode=Full

[system.cpu.istage2_mmu]
type=ArmStage2MMU
children=stage2_tlb
eventq_index=0
stage2_tlb=system.cpu.istage2_mmu.stage2_tlb
sys=system
tlb=system.cpu.itb

[system.cpu.istage2_mmu.stage2_tlb]
type=ArmTLB
children=walker
eventq_index=0
is_stage2=true
size=32
sys=system
walker=system.cpu.istage2_mmu.stage2_tlb.walker

[system.cpu.istage2_mmu.stage2_tlb.walker]
type=ArmTableWalker
clk_domain=system.cpu_clk_domain
default_p_state=UNDEFINED
eventq_index=0
is_stage2=true
num_squash_per_cycle=2
p_state_clk_gate_bins=20
p_state_clk_gate_max=1000000000000
p_state_clk_gate_min=1000
power_model=
sys=system

[system.cpu.itb]
type=ArmTLB
children=walker
eventq_index=0
is_stage2=false
size=64
sys=system
walker=system.cpu.itb.walker

[system.cpu.itb.walker]
type=ArmTableWalker
clk_domain=system.cpu_clk_domain
default_p_state=UNDEFINED
eventq_index=0
is_stage2=false
num_squash_per_cycle=2
p_state_clk_gate_bins=20
p_state_clk_gate_max=1000000000000
p_state_clk_gate_min=1000
power_model=
sys=system
port=system.ruby.l1_cntrl0.sequencer.slave[2]

[system.cpu.tracer]
type=ExeTracer
eventq_index=0

[system.cpu_clk_domain]
type=SrcClockDomain
clock=500
domain_id=-1
eventq_index=0
init_perf_level=0
voltage_domain=system.cpu_voltage_domain

[system.cpu_voltage_domain]
type=VoltageDomain
eventq_index=0
voltage=1.0

[system.dvfs_handler]
type=DVFSHandler
domains=
enable=false
eventq_index=0
sys_clk_domain=system.clk_domain
transition_latency=100000000

[system.intrctrl]
type=IntrControl
eventq_index=0
sys=system

[system.iobus]
type=NoncoherentXBar
clk_domain=system.clk_domain
default_p_state=UNDEFINED
eventq_index=0
forward_latency=1
frontend_latency=2
p_state_clk_gate_bins=20
p_state_clk_gate_max=1000000000000
p_state_clk_gate_min=1000
power_model=
response_latency=2
use_default_range=false
width=16
master=system.realview.gic.pio system.realview.vgic.pio system.realview.gicv2m.pio system.realview.hdlcd.pio system.realview.realview_io.pio system.realview.uart0.pio system.realview.kmi0.pio system.realview.kmi1.pio system.realview.rtc.pio system.realview.pci_host.pio system.realview.energy_ctrl.pio system.pci_ide.pio system.ruby.io_controller.dma_sequencer.slave[0]
slave=system.sys_port_proxy.pio_master_port system.ruby.l1_cntrl0.sequencer.pio_master_port system.ruby.l1_cntrl0.sequencer.mem_master_port

[system.mem_ctrls]
type=DRAMCtrl
IDD0=0.055
IDD02=0.0
IDD2N=0.032
IDD2N2=0.0
IDD2P0=0.0
IDD2P02=0.0
IDD2P1=0.032
IDD2P12=0.0
IDD3N=0.038
IDD3N2=0.0
IDD3P0=0.0
IDD3P02=0.0
IDD3P1=0.038
IDD3P12=0.0
IDD4R=0.157
IDD4R2=0.0
IDD4W=0.125
IDD4W2=0.0
IDD5=0.235
IDD52=0.0
IDD6=0.02
IDD62=0.0
VDD=1.5
VDD2=0.0
activation_limit=4
addr_mapping=RoRaBaCoCh
bank_groups_per_rank=0
banks_per_rank=8
burst_length=8
channels=1
clk_domain=system.clk_domain
conf_table_reported=true
default_p_state=UNDEFINED
device_bus_width=8
device_rowbuffer_size=1024
device_size=536870912
devices_per_rank=8
dll=true
eventq_index=0
in_addr_map=true
kvm_map=true
max_accesses_per_row=16
mem_sched_policy=frfcfs
min_writes_per_switch=16
null=false
p_state_clk_gate_bins=20
p_state_clk_gate_max=1000000000000
p_state_clk_gate_min=1000
page_policy=open_adaptive
power_model=
range=2147483648:2684354559:5:19:0:0
ranks_per_channel=2
read_buffer_size=32
static_backend_latency=10000
static_frontend_latency=10000
tBURST=5000
tCCD_L=0
tCK=1250
tCL=13750
tCS=2500
tRAS=35000
tRCD=13750
tREFI=7800000
tRFC=260000
tRP=13750
tRRD=6000
tRRD_L=0
tRTP=7500
tRTW=2500
tWR=15000
tWTR=7500
tXAW=30000
tXP=6000
tXPDLL=0
tXS=270000
tXSDLL=0
write_buffer_size=64
write_high_thresh_perc=85
write_low_thresh_perc=50
port=system.ruby.dir_cntrl0.memory

[system.pci_ide]
type=IdeController
BAR0=1
BAR0LegacyIO=false
BAR0Size=8
BAR1=1
BAR1LegacyIO=false
BAR1Size=4
BAR2=1
BAR2LegacyIO=false
BAR2Size=8
BAR3=1
BAR3LegacyIO=false
BAR3Size=4
BAR4=1
BAR4LegacyIO=false
BAR4Size=16
BAR5=1
BAR5LegacyIO=false
BAR5Size=0
BIST=0
CacheLineSize=0
CapabilityPtr=0
CardbusCIS=0
ClassCode=1
Command=0
DeviceID=28945
ExpansionROM=0
HeaderType=0
InterruptLine=31
InterruptPin=1
LatencyTimer=0
LegacyIOBase=0
MSICAPBaseOffset=0
MSICAPCapId=0
MSICAPMaskBits=0
MSICAPMsgAddr=0
MSICAPMsgCtrl=0
MSICAPMsgData=0
MSICAPMsgUpperAddr=0
MSICAPNextCapability=0
MSICAPPendingBits=0
MSIXCAPBaseOffset=0
MSIXCAPCapId=0
MSIXCAPNextCapability=0
MSIXMsgCtrl=0
MSIXPbaOffset=0
MSIXTableOffset=0
MaximumLatency=0
MinimumGrant=0
PMCAPBaseOffset=0
PMCAPCapId=0
PMCAPCapabilities=0
PMCAPCtrlStatus=0
PMCAPNextCapability=0
PXCAPBaseOffset=0
PXCAPCapId=0
PXCAPCapabilities=0
PXCAPDevCap2=0
PXCAPDevCapabilities=0
PXCAPDevCtrl=0
PXCAPDevCtrl2=0
PXCAPDevStatus=0
PXCAPLinkCap=0
PXCAPLinkCtrl=0
PXCAPLinkStatus=0
PXCAPNextCapability=0
ProgIF=133
Revision=0
Status=640
SubClassCode=1
SubsystemID=0
SubsystemVendorID=0
VendorID=32902
clk_domain=system.clk_domain
config_latency=20000
ctrl_offset=0
default_p_state=UNDEFINED
disks=system.cf0
eventq_index=0
host=system.realview.pci_host
io_shift=0
p_state_clk_gate_bins=20
p_state_clk_gate_max=1000000000000
p_state_clk_gate_min=1000
pci_bus=0
pci_dev=1
pci_func=0
pio_latency=30000
power_model=
system=system
dma=system.ruby.dma_cntrl1.dma_sequencer.slave[0]
pio=system.iobus.master[11]

[system.realview]
type=RealView
children=clock24MHz dcc energy_ctrl generic_timer gic gicv2m hdlcd kmi0 kmi1 mcc pci_host realview_io rtc uart0 vgic
eventq_index=0
intrctrl=system.intrctrl
system=system

[system.realview.clock24MHz]
type=SrcClockDomain
children=voltage_domain
clock=41667
domain_id=-1
eventq_index=0
init_perf_level=0
voltage_domain=system.realview.clock24MHz.voltage_domain

[system.realview.clock24MHz.voltage_domain]
type=VoltageDomain
eventq_index=0
voltage=3.3

[system.realview.dcc]
type=SubSystem
children=osc_cpu osc_ddr osc_hsbm osc_pxl osc_smb osc_sys
eventq_index=0
thermal_domain=Null

[system.realview.dcc.osc_cpu]
type=RealViewOsc
dcc=0
device=0
eventq_index=0
freq=16667
parent=system.realview.realview_io
position=0
site=1
voltage_domain=system.voltage_domain

[system.realview.dcc.osc_ddr]
type=RealViewOsc
dcc=0
device=8
eventq_index=0
freq=25000
parent=system.realview.realview_io
position=0
site=1
voltage_domain=system.voltage_domain

[system.realview.dcc.osc_hsbm]
type=RealViewOsc
dcc=0
device=4
eventq_index=0
freq=25000
parent=system.realview.realview_io
position=0
site=1
voltage_domain=system.voltage_domain

[system.realview.dcc.osc_pxl]
type=RealViewOsc
dcc=0
device=5
eventq_index=0
freq=42105
parent=system.realview.realview_io
position=0
site=1
voltage_domain=system.voltage_domain

[system.realview.dcc.osc_smb]
type=RealViewOsc
dcc=0
device=6
eventq_index=0
freq=20000
parent=system.realview.realview_io
position=0
site=1
voltage_domain=system.voltage_domain

[system.realview.dcc.osc_sys]
type=RealViewOsc
dcc=0
device=7
eventq_index=0
freq=16667
parent=system.realview.realview_io
position=0
site=1
voltage_domain=system.voltage_domain

[system.realview.energy_ctrl]
type=EnergyCtrl
clk_domain=system.clk_domain
default_p_state=UNDEFINED
dvfs_handler=system.dvfs_handler
eventq_index=0
p_state_clk_gate_bins=20
p_state_clk_gate_max=1000000000000
p_state_clk_gate_min=1000
pio_addr=268435456
pio_latency=100000
power_model=
system=system
pio=system.iobus.master[10]

[system.realview.generic_timer]
type=GenericTimer
clk_domain=system.clk_domain
default_p_state=UNDEFINED
eventq_index=0
gic=system.realview.gic
int_phys=29
int_virt=27
p_state_clk_gate_bins=20
p_state_clk_gate_max=1000000000000
p_state_clk_gate_min=1000
power_model=
system=system

[system.realview.gic]
type=Pl390
clk_domain=system.clk_domain
cpu_addr=738205696
cpu_pio_delay=10000
default_p_state=UNDEFINED
dist_addr=738201600
dist_pio_delay=10000
eventq_index=0
gem5_extensions=false
int_latency=10000
it_lines=512
p_state_clk_gate_bins=20
p_state_clk_gate_max=1000000000000
p_state_clk_gate_min=1000
platform=system.realview
power_model=
system=system
pio=system.iobus.master[0]

[system.realview.gicv2m]
type=Gicv2m
children=frames
clk_domain=system.clk_domain
default_p_state=UNDEFINED
eventq_index=0
frames=system.realview.gicv2m.frames
gic=system.realview.gic
p_state_clk_gate_bins=20
p_state_clk_gate_max=1000000000000
p_state_clk_gate_min=1000
pio_delay=10000
power_model=
system=system
pio=system.iobus.master[2]

[system.realview.gicv2m.frames]
type=Gicv2mFrame
addr=740032512
eventq_index=0
spi_base=256
spi_len=64

[system.realview.hdlcd]
type=HDLcd
amba_id=1314816
clk_domain=system.clk_domain
default_p_state=UNDEFINED
enable_capture=true
eventq_index=0
frame_format=Auto
gic=system.realview.gic
int_num=95
p_state_clk_gate_bins=20
p_state_clk_gate_max=1000000000000
p_state_clk_gate_min=1000
pio_addr=721420288
pio_latency=10000
pixel_buffer_size=2048
pixel_chunk=32
power_model=
pxl_clk=system.realview.dcc.osc_pxl
system=system
virt_refresh_rate=50000000000
vnc=system.vncserver
workaround_dma_line_count=true
workaround_swap_rb=false
dma=system.ruby.dma_cntrl0.dma_sequencer.slave[0]
pio=system.iobus.master[3]

[system.realview.kmi0]
type=Pl050
amba_id=1314896
clk_domain=system.clk_domain
default_p_state=UNDEFINED
eventq_index=0
gic=system.realview.gic
int_delay=1000000
int_num=44
is_mouse=false
p_state_clk_gate_bins=20
p_state_clk_gate_max=1000000000000
p_state_clk_gate_min=1000
pio_addr=470155264
pio_latency=100000
power_model=
system=system
vnc=system.vncserver
pio=system.iobus.master[6]

[system.realview.kmi1]
type=Pl050
amba_id=1314896
clk_domain=system.clk_domain
default_p_state=UNDEFINED
eventq_index=0
gic=system.realview.gic
int_delay=1000000
int_num=45
is_mouse=true
p_state_clk_gate_bins=20
p_state_clk_gate_max=1000000000000
p_state_clk_gate_min=1000
pio_addr=470220800
pio_latency=100000
power_model=
system=system
vnc=system.vncserver
pio=system.iobus.master[7]

[system.realview.mcc]
type=SubSystem
children=osc_clcd osc_mcc osc_peripheral osc_system_bus temp_crtl
eventq_index=0
thermal_domain=Null

[system.realview.mcc.osc_clcd]
type=RealViewOsc
dcc=0
device=1
eventq_index=0
freq=42105
parent=system.realview.realview_io
position=0
site=0
voltage_domain=system.voltage_domain

[system.realview.mcc.osc_mcc]
type=RealViewOsc
dcc=0
device=0
eventq_index=0
freq=20000
parent=system.realview.realview_io
position=0
site=0
voltage_domain=system.voltage_domain

[system.realview.mcc.osc_peripheral]
type=RealViewOsc
dcc=0
device=2
eventq_index=0
freq=41667
parent=system.realview.realview_io
position=0
site=0
voltage_domain=system.voltage_domain

[system.realview.mcc.osc_system_bus]
type=RealViewOsc
dcc=0
device=4
eventq_index=0
freq=41667
parent=system.realview.realview_io
position=0
site=0
voltage_domain=system.voltage_domain

[system.realview.mcc.temp_crtl]
type=RealViewTemperatureSensor
dcc=0
device=0
eventq_index=0
parent=system.realview.realview_io
position=0
site=0
system=system

[system.realview.pci_host]
type=GenericArmPciHost
clk_domain=system.clk_domain
conf_base=805306368
conf_device_bits=12
conf_size=268435456
default_p_state=UNDEFINED
eventq_index=0
int_base=100
int_count=4
int_policy=ARM_PCI_INT_DEV
p_state_clk_gate_bins=20
p_state_clk_gate_max=1000000000000
p_state_clk_gate_min=1000
pci_dma_base=0
pci_mem_base=0
pci_pio_base=788529152
platform=system.realview
power_model=
system=system
pio=system.iobus.master[9]

[system.realview.realview_io]
type=RealViewCtrl
clk_domain=system.clk_domain
default_p_state=UNDEFINED
eventq_index=0
idreg=35979264
p_state_clk_gate_bins=20
p_state_clk_gate_max=1000000000000
p_state_clk_gate_min=1000
pio_addr=469827584
pio_latency=100000
power_model=
proc_id0=335544320
proc_id1=335544320
system=system
pio=system.iobus.master[4]

[system.realview.rtc]
type=PL031
amba_id=3412017
clk_domain=system.clk_domain
default_p_state=UNDEFINED
eventq_index=0
gic=system.realview.gic
int_delay=100000
int_num=36
p_state_clk_gate_bins=20
p_state_clk_gate_max=1000000000000
p_state_clk_gate_min=1000
pio_addr=471269376
pio_latency=100000
power_model=
system=system
time=Thu Jan  1 00:00:00 2009
pio=system.iobus.master[8]

[system.realview.uart0]
type=Pl011
clk_domain=system.clk_domain
default_p_state=UNDEFINED
device=system.terminal
end_on_eot=false
eventq_index=0
gic=system.realview.gic
int_delay=100000
int_num=37
p_state_clk_gate_bins=20
p_state_clk_gate_max=1000000000000
p_state_clk_gate_min=1000
pio_addr=470351872
pio_latency=100000
platform=system.realview
power_model=
system=system
pio=system.iobus.master[5]

[system.realview.vgic]
type=VGic
clk_domain=system.clk_domain
default_p_state=UNDEFINED
eventq_index=0
gic=system.realview.gic
hv_addr=738213888
p_state_clk_gate_bins=20
p_state_clk_gate_max=1000000000000
p_state_clk_gate_min=1000
pio_delay=10000
platform=system.realview
power_model=
ppint=25
system=system
vcpu_addr=738222080
pio=system.iobus.master[1]

[system.ruby]
type=RubySystem
children=clk_domain dir_cntrl0 dma_cntrl0 dma_cntrl1 io_controller l1_cntrl0 l2_cntrl0 memctrl_clk_domain network
access_backing_store=false
all_instructions=false
block_size_bytes=64
clk_domain=system.ruby.clk_domain
default_p_state=UNDEFINED
eventq_index=0
hot_lines=false
memory_size_bits=48
num_of_sequencers=1
number_of_virtual_networks=3
p_state_clk_gate_bins=20
p_state_clk_gate_max=1000000000000
p_state_clk_gate_min=1000
phys_mem=Null
power_model=
randomization=false

[system.ruby.clk_domain]
type=SrcClockDomain
clock=500
domain_id=-1
eventq_index=0
init_perf_level=0
voltage_domain=system.voltage_domain

[system.ruby.dir_cntrl0]
type=Directory_Controller
children=directory forwardFromDir requestToDir responseFromDir responseFromMemory responseToDir
addr_ranges=2147483648:2684354559:5:0:0:0
buffer_size=0
clk_domain=system.ruby.clk_domain
cluster_id=0
default_p_state=UNDEFINED
directory=system.ruby.dir_cntrl0.directory
directory_latency=6
eventq_index=0
forwardFromDir=system.ruby.dir_cntrl0.forwardFromDir
number_of_TBEs=256
p_state_clk_gate_bins=20
p_state_clk_gate_max=1000000000000
p_state_clk_gate_min=1000
power_model=
recycle_latency=10
requestToDir=system.ruby.dir_cntrl0.requestToDir
responseFromDir=system.ruby.dir_cntrl0.responseFromDir
responseFromMemory=system.ruby.dir_cntrl0.responseFromMemory
responseToDir=system.ruby.dir_cntrl0.responseToDir
ruby_system=system.ruby
system=system
to_memory_controller_latency=1
transitions_per_cycle=32
version=0
memory=system.mem_ctrls.port

[system.ruby.dir_cntrl0.directory]
type=RubyDirectoryMemory
addr_ranges=2147483648:2684354559:5:0:0:0
eventq_index=0

[system.ruby.dir_cntrl0.forwardFromDir]
type=MessageBuffer
buffer_size=0
eventq_index=0
ordered=false
randomization=false
master=system.ruby.network.slave[6]

[system.ruby.dir_cntrl0.requestToDir]
type=MessageBuffer
buffer_size=0
eventq_index=0
ordered=false
randomization=false
slave=system.ruby.network.master[5]

[system.ruby.dir_cntrl0.responseFromDir]
type=MessageBuffer
buffer_size=0
eventq_index=0
ordered=false
randomization=false
master=system.ruby.network.slave[5]

[system.ruby.dir_cntrl0.responseFromMemory]
type=MessageBuffer
buffer_size=0
eventq_index=0
ordered=false
randomization=false

[system.ruby.dir_cntrl0.responseToDir]
type=MessageBuffer
buffer_size=0
eventq_index=0
ordered=false
randomization=false
slave=system.ruby.network.master[6]

[system.ruby.dma_cntrl0]
type=DMA_Controller
children=dma_sequencer mandatoryQueue reqToDir respToDir responseFromDir triggerQueue
addr_ranges=0:18446744073709551615:0:0:0:0
buffer_size=0
clk_domain=system.ruby.clk_domain
cluster_id=0
default_p_state=UNDEFINED
dma_sequencer=system.ruby.dma_cntrl0.dma_sequencer
eventq_index=0
mandatoryQueue=system.ruby.dma_cntrl0.mandatoryQueue
number_of_TBEs=256
p_state_clk_gate_bins=20
p_state_clk_gate_max=1000000000000
p_state_clk_gate_min=1000
power_model=
recycle_latency=10
reqToDir=system.ruby.dma_cntrl0.reqToDir
request_latency=14
respToDir=system.ruby.dma_cntrl0.respToDir
responseFromDir=system.ruby.dma_cntrl0.responseFromDir